Version 4
SHEET 1 1540 816
WIRE 176 64 -32 64
WIRE 208 64 176 64
WIRE 368 64 368 -128
WIRE 368 64 208 64
WIRE 512 64 368 64
WIRE 544 64 512 64
WIRE 960 64 544 64
WIRE 992 64 960 64
WIRE 1264 64 992 64
WIRE 1296 64 1264 64
WIRE 176 112 176 64
WIRE 208 112 176 112
WIRE 544 112 544 64
WIRE 544 112 512 112
WIRE 992 112 992 64
WIRE 992 112 960 112
WIRE 1296 112 1296 64
WIRE 1296 112 1264 112
WIRE 464 176 464 144
WIRE 512 176 512 160
WIRE 512 176 464 176
WIRE 912 176 912 144
WIRE 912 176 512 176
WIRE 208 192 208 160
WIRE 256 192 256 144
WIRE 256 192 208 192
WIRE 1216 192 1216 144
WIRE 1216 192 256 192
WIRE 1264 224 1264 160
WIRE 1424 224 1264 224
WIRE 1536 224 1504 224
WIRE 960 240 960 160
WIRE 960 240 832 240
WIRE 960 288 960 240
WIRE 960 288 912 288
WIRE 1264 288 1264 224
WIRE 1264 288 1216 288
WIRE 208 304 208 192
WIRE 512 304 512 176
WIRE 960 304 960 288
WIRE 1264 304 1264 288
WIRE -32 368 -32 64
WIRE 160 384 128 384
WIRE 752 384 752 240
WIRE 752 384 560 384
WIRE 912 384 912 288
WIRE 1216 384 1216 288
WIRE 128 400 128 384
WIRE 368 400 208 400
WIRE 512 400 368 400
WIRE 128 512 128 480
WIRE 1536 512 1536 224
WIRE 1536 512 128 512
WIRE -32 544 -32 448
WIRE 112 544 -32 544
WIRE -32 560 -32 544
WIRE 368 560 368 400
WIRE 112 640 112 544
WIRE 112 640 16 640
WIRE 320 640 112 640
FLAG -32 656 0
FLAG 368 656 0
FLAG 368 -208 0
FLAG 368 608 0
FLAG -32 608 0
FLAG 960 400 0
FLAG 960 352 0
FLAG 1264 352 0
FLAG 1264 400 0
FLAG 208 352 0
FLAG 512 352 0
DATAFLAG 960 224 ""
DATAFLAG 208 192 ""
DATAFLAG 112 640 ""
DATAFLAG 144 384 ""
DATAFLAG 368 400 ""
SYMBOL pmos4 464 64 R0
WINDOW 123 -33 -31 Left 2
SYMATTR Value2 l=0.4u w=5u
SYMATTR InstName M1
SYMBOL pmos4 256 64 M0
WINDOW 123 -36 -33 Left 2
SYMATTR Value2 l=0.4u w=5u
SYMATTR InstName M2
SYMBOL voltage 368 -112 R180
WINDOW 0 24 96 Left 2
WINDOW 3 24 16 Left 2
WINDOW 123 0 0 Left 2
WINDOW 39 0 0 Left 2
SYMATTR InstName V1
SYMATTR Value 1.8
SYMBOL nmos4 320 560 R0
WINDOW 123 56 100 Left 2
SYMATTR Value2 l=0.4u w=50u
SYMATTR InstName M3
SYMBOL nmos4 16 560 M0
WINDOW 123 56 100 Left 2
SYMATTR Value2 l=0.4u w=50u
SYMATTR InstName M4
SYMBOL nmos4 160 304 R0
WINDOW 123 -11 -16 Left 2
SYMATTR Value2 l=.4u w=50u
SYMATTR InstName M5
SYMBOL nmos4 560 304 M0
WINDOW 123 -44 -17 Left 2
SYMATTR Value2 l=.4u w=50u
SYMATTR InstName M6
SYMBOL res -48 352 R0
SYMATTR InstName R1
SYMATTR Value 29.5k
SYMBOL pmos4 1216 64 R0
WINDOW 123 -13 -24 Left 2
SYMATTR Value2 l=0.4u w=50u
SYMATTR InstName M7
SYMBOL pmos4 912 64 R0
WINDOW 123 -38 -26 Left 2
SYMATTR Value2 l=0.4u w=50u
SYMATTR InstName M8
SYMBOL nmos4 912 304 R0
WINDOW 123 56 100 Left 2
SYMATTR Value2 l=0.4u w=3u
SYMATTR InstName M9
SYMBOL nmos4 1216 304 R0
WINDOW 123 56 100 Left 2
SYMATTR Value2 l=0.4u w=3u
SYMATTR InstName M10
SYMBOL res 848 224 R90
WINDOW 0 0 56 VBottom 2
WINDOW 3 32 56 VTop 2
SYMATTR InstName R2
SYMATTR Value 1e20
SYMBOL res 1520 208 R90
WINDOW 0 0 56 VBottom 2
WINDOW 3 32 56 VTop 2
SYMATTR InstName R3
SYMATTR Value 1e20
SYMBOL voltage 128 384 R0
WINDOW 123 24 124 Left 2
WINDOW 39 0 0 Left 2
SYMATTR InstName V2
SYMATTR Value ""
SYMATTR Value2 AC 1m
TEXT -184 776 Left 2 !.include mos_models.txt
TEXT -190 796 Left 2 !.ac dec 10 100 1giga
