Version 4
SHEET 1 1288 1432
WIRE 288 560 -176 560
WIRE 464 560 288 560
WIRE 736 560 464 560
WIRE 176 720 -32 720
WIRE 432 720 240 720
WIRE 624 720 432 720
WIRE 864 720 688 720
WIRE -176 832 -176 560
WIRE 288 832 288 560
WIRE 736 832 736 560
WIRE -32 880 -32 720
WIRE -32 880 -112 880
WIRE 32 880 -32 880
WIRE 176 880 112 880
WIRE 272 880 176 880
WIRE 432 880 432 720
WIRE 432 880 352 880
WIRE 512 880 432 880
WIRE 640 880 592 880
WIRE 720 880 640 880
WIRE 864 880 864 720
WIRE 864 880 800 880
WIRE 928 880 864 880
WIRE 1136 880 1008 880
WIRE 1232 880 1136 880
WIRE 1136 896 1136 880
WIRE 1232 896 1232 880
WIRE 176 1024 176 880
WIRE 400 1024 176 1024
WIRE 640 1024 640 880
WIRE 640 1024 464 1024
WIRE 176 1040 176 1024
WIRE 96 1200 96 928
WIRE 464 1200 96 1200
WIRE 576 1200 576 928
WIRE 576 1200 464 1200
WIRE 992 1200 992 928
WIRE 992 1200 576 1200
FLAG -128 832 0
FLAG 48 928 0
FLAG 336 832 0
FLAG 528 928 0
FLAG 784 832 0
FLAG 176 1120 0
FLAG 944 928 0
FLAG -192 880 0
FLAG 1136 960 0
FLAG 1232 976 0
FLAG 464 1280 0
FLAG 464 640 0
SYMBOL sw -96 880 R90
SYMATTR InstName S8
SYMBOL sw 368 880 R90
SYMATTR InstName S9
SYMBOL sw 816 880 R90
SYMATTR InstName S10
SYMBOL sw 16 880 R270
SYMATTR InstName S11
SYMBOL sw 496 880 R270
SYMATTR InstName S12
SYMBOL sw 912 880 R270
SYMATTR InstName S13
SYMBOL voltage 176 1024 R0
WINDOW 123 0 0 Left 2
WINDOW 39 24 128 Left 2
SYMATTR InstName V4
SYMATTR Value 5
SYMATTR SpiceLine Rser=0
SYMBOL polcap 240 704 R90
WINDOW 0 0 32 VBottom 2
WINDOW 3 32 32 VTop 2
SYMATTR InstName C4
SYMATTR Value 1µ
SYMATTR SpiceLine Rser=0
SYMBOL polcap 688 704 R90
WINDOW 0 0 32 VBottom 2
WINDOW 3 32 32 VTop 2
SYMATTR InstName C5
SYMATTR Value 1µ
SYMATTR SpiceLine Rser=0
SYMBOL polcap 464 1008 R90
WINDOW 0 0 32 VBottom 2
WINDOW 3 32 32 VTop 2
SYMATTR InstName C6
SYMATTR Value 1µ
SYMATTR SpiceLine Rser=0
SYMBOL polcap 1120 896 R0
SYMATTR InstName C7
SYMATTR Value 10µ
SYMATTR SpiceLine Rser=0
SYMBOL res 1216 880 R0
SYMATTR InstName R2
SYMATTR Value 1k
SYMBOL voltage 464 544 R0
WINDOW 123 0 0 Left 2
WINDOW 39 0 0 Left 2
SYMATTR InstName V5
SYMATTR Value PULSE(0 1 0.4901m 1n 1n 0.49m 1m 20)
SYMBOL voltage 464 1184 R0
WINDOW 123 0 0 Left 2
WINDOW 39 0 0 Left 2
SYMATTR InstName V6
SYMATTR Value PULSE(0 1 0 1n 1n 0.49m 1m 20)
TEXT -184 1384 Left 2 !.model SW SW(Ron=100 Roff=1e15 Vt=1e-10 Vh=0)
TEXT -184 1414 Left 2 !.tran 0 20m 0
