Version 4
SHEET 1 880 692
WIRE 176 0 80 0
WIRE 336 0 256 0
WIRE 400 0 336 0
WIRE 80 80 80 0
WIRE 80 80 -96 80
WIRE 80 112 80 80
WIRE 96 112 80 112
WIRE 96 144 0 144
WIRE 336 160 336 0
WIRE 336 160 224 160
WIRE 0 272 0 144
WIRE 16 272 0 272
WIRE 112 272 96 272
WIRE 176 272 112 272
WIRE 336 272 256 272
WIRE 400 272 336 272
WIRE 112 336 112 272
WIRE 112 336 80 336
WIRE 80 384 80 336
WIRE 96 384 80 384
WIRE 64 400 -96 400
WIRE 64 416 64 400
WIRE 96 416 64 416
WIRE 336 432 336 272
WIRE 336 432 224 432
FLAG -96 480 0
FLAG -96 160 0
FLAG -96 0 Vcc
IOPIN -96 0 In
FLAG -96 320 Vcc
IOPIN -96 320 In
FLAG 400 192 Vcc
IOPIN 400 192 In
FLAG 400 -80 Vcc
IOPIN 400 -80 In
FLAG 0 272 Vin
IOPIN 0 272 In
FLAG -384 0 Vcc
IOPIN -384 0 In
FLAG -256 0 Vin
IOPIN -256 0 In
FLAG -384 80 0
FLAG -256 80 0
FLAG 224 96 Vcc
IOPIN 224 96 In
FLAG 224 368 Vcc
IOPIN 224 368 In
FLAG 224 128 0
FLAG 224 400 0
SYMBOL res -112 -16 R0
SYMATTR InstName R1
SYMATTR Value 14k
SYMBOL res -112 64 R0
SYMATTR InstName R2
SYMATTR Value 33.5k
SYMBOL res -112 304 R0
SYMATTR InstName R3
SYMATTR Value 35k
SYMBOL res -112 384 R0
SYMATTR InstName R4
SYMATTR Value 15k
SYMBOL res 384 -96 R0
SYMATTR InstName R5
SYMATTR Value 5k
SYMBOL res 416 288 R180
WINDOW 0 36 76 Left 2
WINDOW 3 36 40 Left 2
SYMATTR InstName R6
SYMATTR Value 50k
SYMBOL res 272 -16 R90
WINDOW 0 0 56 VBottom 2
WINDOW 3 32 56 VTop 2
SYMATTR InstName R7
SYMATTR Value 500k
SYMBOL res 272 256 R90
WINDOW 0 0 56 VBottom 2
WINDOW 3 32 56 VTop 2
SYMATTR InstName R8
SYMATTR Value 70k
SYMBOL res 112 256 R90
WINDOW 0 0 56 VBottom 2
WINDOW 3 32 56 VTop 2
SYMATTR InstName R9
SYMATTR Value 2k
SYMBOL voltage -384 -16 R0
WINDOW 123 0 0 Left 2
WINDOW 39 0 0 Left 2
SYMATTR InstName V1
SYMATTR Value 5
SYMBOL voltage -256 -16 R0
WINDOW 3 -119 595 Left 2
WINDOW 123 0 0 Left 2
WINDOW 39 0 0 Left 2
SYMATTR Value PULSE(0 5 0 0.05 0.05 0 0.1)
SYMATTR InstName V2
SYMBOL AutoGenerated\\TLV1701 160 128 R0
SYMATTR InstName U1
SYMBOL AutoGenerated\\TLV1701 160 400 R0
SYMATTR InstName U2
TEXT -376 624 Left 2 !.include tlv1701.txt
TEXT -464 648 Left 2 !.tran 0 1 0 0.001
TEXT -456 672 Left 2 !.options cshunt=1e-15
